Circuit: * D:\AMP - Evan-dev\AMP_PCBv1\AMP_PCBv1\LTSpice Diff Simulator\DiffSimulator.asc

Direct Newton iteration for .op point succeeded.

Date: Tue Oct 13 14:04:36 2020
Total elapsed time: 0.065 seconds.

tnom = 27
temp = 27
method = modified trap
totiter = 2214
traniter = 2201
tranpoints = 1048
accept = 1045
rejected = 3
matrix size = 12
fillins = 2
solver = Normal
Matrix Compiler1: 588 bytes object code size  0.1/0.1/[0.1]
Matrix Compiler2: 1.01 KB object code size  0.1/0.1/[0.1]

