Circuit: * D:\AMP - Evan-dev\AMP_PCBv1\AMP_PCBv1\LTSpice Diff Simulator\DiffSimulator.asc

Direct Newton iteration failed to find .op point.  (Use ".option noopiter" to skip.)
Starting Gmin stepping
Gmin = 10
Gmin = 1.07374
Gmin = 0.115292
Gmin = 0.0123794
Gmin = 0.00132923
Gmin = 0.000142725
Gmin = 1.5325e-005
Gmin = 1.6455e-006
Gmin = 1.76685e-007
Gmin = 1.89714e-008
Gmin = 2.03704e-009
Gmin = 2.18725e-010
Gmin = 2.34854e-011
Gmin = 2.52173e-012
Gmin = 2.70769e-013
Gmin = 0
Gmin stepping succeeded in finding the operating point.


Date: Sun Oct 18 09:31:14 2020
Total elapsed time: 0.114 seconds.

tnom = 27
temp = 27
method = modified trap
totiter = 5510
traniter = 4815
tranpoints = 1446
accept = 1318
rejected = 128
matrix size = 87
fillins = 67
solver = Normal
Matrix Compiler1: 8.02 KB object code size  1.3/0.6/[0.4]
Matrix Compiler2: 8.75 KB object code size  0.6/1.0/[0.5]

