Circuit: * D:\AMP - Evan-dev\AMP_PCBv1\AMP_PCBv1\LTSpice Diff Simulator\Draft1.asc

Direct Newton iteration for .op point succeeded.

Date: Sun Oct 18 11:07:12 2020
Total elapsed time: 0.020 seconds.

tnom = 27
temp = 27
method = trap
totiter = 3
traniter = 0
tranpoints = 0
accept = 0
rejected = 0
matrix size = 3
fillins = 0
solver = Normal
Matrix Compiler1: 50 bytes object code size
Matrix Compiler2: 175 bytes object code size
