Circuit: * D:\AMP - Evan-dev\AMP_PCBv1\AMP_PCBv1\LTSpice Diff Simulator\Draft1.asc

Error on line 4 : v1 p001 0 v
	 Unknown parameter "v"
V1: Missing value, assumed 0V @ DC
Direct Newton iteration for .op point succeeded.
Semiconductor Device Operating Points:
                        --- Diodes ---
Name:      d2          d1
Model:      d           d
Id:     -8.07e-13    1.59e-04
Vd:     -7.97e-01    6.08e-01
Req:     1.00e+12    1.62e+02
CAP:     0.00e+00    0.00e+00



Date: Fri Nov 20 17:31:56 2020
Total elapsed time: 0.035 seconds.

tnom = 27
temp = 27
method = trap
totiter = 10
traniter = 0
tranpoints = 0
accept = 0
rejected = 0
matrix size = 6
fillins = 0
solver = Normal
Matrix Compiler1: 146 bytes object code size
Matrix Compiler2: 380 bytes object code size
